MarkovicDynamicModel/network.cf
 04/15/2019 UCB test             100.0 0    0
BUS DATA FOLLOWS                      4 ITEMS
   1 SYS           1  1  3 1.0150   0.00     0.00     0.00     0.00    0.00  138.00 1.0000   99.00  -99.00  0.0000  0.0000    0    1
   2 GEN           1  1  1 1.0000   0.00     1.50     0.82     6.00    2.52   38.00 0.0000    1.05    0.90  0.0000  0.0000    0    2
   3 INV           1  1  1 1.0000   0.00     1.50     0.82     6.00    2.52   38.00 1.0000    1.05    0.90  0.0000  0.0000    0    3
-999
BRANCH DATA FOLLOWS                   3 ITEMS
   1    2  0  0 1 0  0.232573  0.178648   0.00000     0     0     0    0 0  0.0000    0.00 0.0000 0.00000.00000  0.0000 0.0000     1
   1    3  0  0 1 0  0.199430  0.155020   0.00000     0     0     0    0 0  0.0000    0.00 0.0000 0.00000.00000  0.0000 0.0000     2
-999
LOSS ZONES FOLLOWS                    0 ITEMS
-99
INTERCHANGE DATA FOLLOWS              1 ITEMS                                                                                     1
-9
TIE LINES FOLLOW                      0 ITEMS
-999
END OF DATA
